Circuit: * C:\users\chris\Projects\eurorack\VCO\hardware\ltspice\pwm.asc

Early termination of direct N-R iteration.
Direct Newton iteration failed to find .op point.  (Use ".option noopiter" to skip.)
Starting Gmin stepping
Gmin = 10
vernier = 0.5
vernier = 0.25
vernier = 0.125
Gmin = 5.5165
vernier = 0.0625
vernier = 0.03125
vernier = 0.015625
vernier = 0.0078125
Gmin = 5.49501
vernier = 0.00390625
vernier = 0.00195313
vernier = 0.000976563
vernier = 0.000488281
Gmin = 5.50104
Gmin = 0
Gmin stepping failed

Starting source stepping with srcstepmethod=0
Source Step = 3.0303%
Source Step = 33.3333%
Source Step = 63.6364%
Source Step = 93.9394%
Source stepping succeeded in finding the operating point.


Date: Fri Apr 17 12:43:51 2026
Total elapsed time: 1.028 seconds.

tnom = 27
temp = 27
method = modified trap
totiter = 206298
traniter = 204647
tranpoints = 101408
accept = 100971
rejected = 437
matrix size = 52
fillins = 298
solver = Normal
Matrix Compiler1: 28.11 KB object code size  2.4/1.0/[1.0]
Matrix Compiler2: 9.50 KB object code size  0.6/1.5/[0.5]

