Circuit: * C:\users\chris\Projects\eurorack\VCO\hardware\ltspice\vco.asc

WARNING: Less than two connections to node FM.  This node is used by R9.
WARNING: Less than two connections to node PWM.  This node is used by R43.
WARNING: Less than two connections to node SIN.  This node is used by R68.
Early termination of direct N-R iteration.
Direct Newton iteration failed to find .op point.  (Use ".option noopiter" to skip.)
Starting Gmin stepping
Gmin = 10
vernier = 0.5
vernier = 0.25
vernier = 0.125
Gmin = 5.49741
vernier = 0.0625
vernier = 0.03125
vernier = 0.015625
vernier = 0.0078125
Gmin = 5.51716
vernier = 0.00390625
vernier = 0.00195313
vernier = 0.000976563
vernier = 0.000488281
Gmin = 5.50104
Gmin = 0
Gmin stepping failed

Starting source stepping with srcstepmethod=0
Source Step = 3.0303%
Source Step = 33.3333%
Source Step = 63.6364%
Source Step = 93.9394%
Source stepping succeeded in finding the operating point.


Date: Sat Apr 18 16:42:28 2026
Total elapsed time: 12.594 seconds.

tnom = 27
temp = 27
method = modified trap
totiter = 6581
traniter = 4854
tranpoints = 1971
accept = 1671
rejected = 300
matrix size = 344
fillins = 9488
solver = Alternate
Thread vector: 61.6/23.3[7] 23.2/10.6[7] 12.2/7.3[7] 24.5/10.6[7]  2592/500
Matrix Compiler1:  193882 opcodes  912.8/[709.4]/965.8
Matrix Compiler2: 226.34 KB object code size  75.3/60.0/[28.2]

